300 

B 3.4592326881023459 0.0000000000000000 0.0000000000000000
N 3.1601663091447025 1.4069966911768246 0.0000000000000000
B 2.7985780321721299 2.0332859583146075 1.2548708100836514
N 1.7296163440511734 2.9957833854981630 1.2548708100836514
B 1.0689616881209569 3.2899257894009364 -0.0000000000000004
N -0.3615882769725717 3.4402826494914325 -0.0000000000000004
B -1.0689616881209565 3.2899257894009368 1.2548708100836512
N -2.3146784661263045 2.5707108722855159 1.2548708100836512
B -2.7985780321721294 2.0332859583146079 -0.0000000000000009
N -3.3836401542472623 0.7192149171154228 -0.0000000000000009
B -3.4592326881023459 0.0000000000000004 1.2548708100836503
N -3.1601663091447025 -1.4069966911768235 1.2548708100836503
B -2.7985780321721303 -2.0332859583146070 -0.0000000000000009
N -1.7296163440511745 -2.9957833854981621 -0.0000000000000009
B -1.0689616881209574 -3.2899257894009364 1.2548708100836494
N 0.3615882769725706 -3.4402826494914325 1.2548708100836494
B 1.0689616881209563 -3.2899257894009368 -0.0000000000000018
N 2.3146784661263045 -2.5707108722855163 -0.0000000000000018
B 2.7985780321721294 -2.0332859583146083 1.2548708100836503
N 3.3836401542472623 -0.7192149171154233 1.2548708100836503
B 3.4592326881023459 0.0000000000000000 2.5097416201673033
N 3.1601663091447025 1.4069966911768246 2.5097416201673033
B 2.7985780321721299 2.0332859583146075 3.7646124302509545
N 1.7296163440511734 2.9957833854981630 3.7646124302509545
B 1.0689616881209569 3.2899257894009364 2.5097416201673028
N -0.3615882769725717 3.4402826494914325 2.5097416201673028
B -1.0689616881209565 3.2899257894009368 3.7646124302509545
N -2.3146784661263045 2.5707108722855159 3.7646124302509545
B -2.7985780321721294 2.0332859583146079 2.5097416201673024
N -3.3836401542472623 0.7192149171154228 2.5097416201673024
B -3.4592326881023459 0.0000000000000004 3.7646124302509536
N -3.1601663091447025 -1.4069966911768235 3.7646124302509536
B -2.7985780321721303 -2.0332859583146070 2.5097416201673024
N -1.7296163440511745 -2.9957833854981621 2.5097416201673024
B -1.0689616881209574 -3.2899257894009364 3.7646124302509527
N 0.3615882769725706 -3.4402826494914325 3.7646124302509527
B 1.0689616881209563 -3.2899257894009368 2.5097416201673015
N 2.3146784661263045 -2.5707108722855163 2.5097416201673015
B 2.7985780321721294 -2.0332859583146083 3.7646124302509536
N 3.3836401542472623 -0.7192149171154233 3.7646124302509536
B 3.4592326881023459 0.0000000000000000 5.0194832403346066
N 3.1601663091447025 1.4069966911768246 5.0194832403346066
B 2.7985780321721299 2.0332859583146075 6.2743540504182578
N 1.7296163440511734 2.9957833854981630 6.2743540504182578
B 1.0689616881209569 3.2899257894009364 5.0194832403346066
N -0.3615882769725717 3.4402826494914325 5.0194832403346066
B -1.0689616881209565 3.2899257894009368 6.2743540504182578
N -2.3146784661263045 2.5707108722855159 6.2743540504182578
B -2.7985780321721294 2.0332859583146079 5.0194832403346057
N -3.3836401542472623 0.7192149171154228 5.0194832403346057
B -3.4592326881023459 0.0000000000000004 6.2743540504182569
N -3.1601663091447025 -1.4069966911768235 6.2743540504182569
B -2.7985780321721303 -2.0332859583146070 5.0194832403346057
N -1.7296163440511745 -2.9957833854981621 5.0194832403346057
B -1.0689616881209574 -3.2899257894009364 6.2743540504182560
N 0.3615882769725706 -3.4402826494914325 6.2743540504182560
B 1.0689616881209563 -3.2899257894009368 5.0194832403346048
N 2.3146784661263045 -2.5707108722855163 5.0194832403346048
B 2.7985780321721294 -2.0332859583146083 6.2743540504182569
N 3.3836401542472623 -0.7192149171154233 6.2743540504182569
B 3.4592326881023459 0.0000000000000000 7.5292248605019099
N 3.1601663091447025 1.4069966911768246 7.5292248605019099
B 2.7985780321721299 2.0332859583146075 8.7840956705855611
N 1.7296163440511734 2.9957833854981630 8.7840956705855611
B 1.0689616881209569 3.2899257894009364 7.5292248605019090
N -0.3615882769725717 3.4402826494914325 7.5292248605019090
B -1.0689616881209565 3.2899257894009368 8.7840956705855611
N -2.3146784661263045 2.5707108722855159 8.7840956705855611
B -2.7985780321721294 2.0332859583146079 7.5292248605019090
N -3.3836401542472623 0.7192149171154228 7.5292248605019090
B -3.4592326881023459 0.0000000000000004 8.7840956705855611
N -3.1601663091447025 -1.4069966911768235 8.7840956705855611
B -2.7985780321721303 -2.0332859583146070 7.5292248605019090
N -1.7296163440511745 -2.9957833854981621 7.5292248605019090
B -1.0689616881209574 -3.2899257894009364 8.7840956705855593
N 0.3615882769725706 -3.4402826494914325 8.7840956705855593
B 1.0689616881209563 -3.2899257894009368 7.5292248605019081
N 2.3146784661263045 -2.5707108722855163 7.5292248605019081
B 2.7985780321721294 -2.0332859583146083 8.7840956705855611
N 3.3836401542472623 -0.7192149171154233 8.7840956705855611
B 3.4592326881023459 0.0000000000000000 10.0389664806692132
N 3.1601663091447025 1.4069966911768246 10.0389664806692132
B 2.7985780321721299 2.0332859583146075 -1.2548708100836519
N 1.7296163440511734 2.9957833854981630 -1.2548708100836519
B 1.0689616881209569 3.2899257894009364 10.0389664806692132
N -0.3615882769725717 3.4402826494914325 10.0389664806692132
B -1.0689616881209565 3.2899257894009368 -1.2548708100836521
N -2.3146784661263045 2.5707108722855159 -1.2548708100836521
B -2.7985780321721294 2.0332859583146079 10.0389664806692132
N -3.3836401542472623 0.7192149171154228 10.0389664806692132
B -3.4592326881023459 0.0000000000000004 -1.2548708100836530
N -3.1601663091447025 -1.4069966911768235 -1.2548708100836530
B -2.7985780321721303 -2.0332859583146070 10.0389664806692132
N -1.7296163440511745 -2.9957833854981621 10.0389664806692132
B -1.0689616881209574 -3.2899257894009364 -1.2548708100836539
N 0.3615882769725706 -3.4402826494914325 -1.2548708100836539
B 1.0689616881209563 -3.2899257894009368 10.0389664806692114
N 2.3146784661263045 -2.5707108722855163 10.0389664806692114
B 2.7985780321721294 -2.0332859583146083 -1.2548708100836530
N 3.3836401542472623 -0.7192149171154233 -1.2548708100836530
N 6.9184653762046917 0.0000000000000000 0.0000000000000000
B 6.7672803084945254 1.4384298342308426 0.0000000000000000
N 6.5798515788018719 2.1379233762419134 1.2548708100836514
B 5.9915667709963270 3.4592326881023454 1.2548708100836514
N 5.5971560643442597 4.0665719166292149 -0.0000000000000004
B 4.6293569322526116 5.1414217445710300 -0.0000000000000004
N 4.0665719166292149 5.5971560643442597 1.2548708100836512
B 2.8139933823536509 6.3203326182894051 1.2548708100836512
N 2.1379233762419139 6.5798515788018719 -0.0000000000000009
B 0.7231765539451459 6.8805652989828641 -0.0000000000000009
N 0.0000000000000004 6.9184653762046917 1.2548708100836503
B -1.4384298342308399 6.7672803084945254 1.2548708100836503
N -2.1379233762419121 6.5798515788018745 -0.0000000000000009
B -3.4592326881023441 5.9915667709963261 -0.0000000000000009
N -4.0665719166292140 5.5971560643442597 1.2548708100836494
B -5.1414217445710291 4.6293569322526125 1.2548708100836494
N -5.5971560643442588 4.0665719166292158 -0.0000000000000018
B -6.3203326182894033 2.8139933823536509 -0.0000000000000018
N -6.5798515788018728 2.1379233762419143 1.2548708100836503
B -6.8805652989828641 0.7231765539451462 1.2548708100836503
N -6.9184653762046917 0.0000000000000008 -0.0000000000000036
B -6.7672803084945254 -1.4384298342308410 -0.0000000000000036
N -6.5798515788018745 -2.1379233762419130 1.2548708100836485
B -5.9915667709963296 -3.4592326881023419 1.2548708100836485
N -5.5971560643442615 -4.0665719166292149 -0.0000000000000018
B -4.6293569322526134 -5.1414217445710291 -0.0000000000000018
N -4.0665719166292158 -5.5971560643442588 1.2548708100836503
B -2.8139933823536492 -6.3203326182894051 1.2548708100836503
N -2.1379233762419148 -6.5798515788018728 -0.0000000000000036
B -0.7231765539451438 -6.8805652989828658 -0.0000000000000036
N -0.0000000000000013 -6.9184653762046917 1.2548708100836485
B 1.4384298342308433 -6.7672803084945237 1.2548708100836485
N 2.1379233762419125 -6.5798515788018737 -0.0000000000000036
B 3.4592326881023467 -5.9915667709963261 -0.0000000000000036
N 4.0665719166292131 -5.5971560643442606 1.2548708100836485
B 5.1414217445710300 -4.6293569322526107 1.2548708100836485
N 5.5971560643442597 -4.0665719166292167 -0.0000000000000036
B 6.3203326182894051 -2.8139933823536496 -0.0000000000000036
N 6.5798515788018728 -2.1379233762419152 1.2548708100836450
B 6.8805652989828632 -0.7231765539451440 1.2548708100836450
N 6.9184653762046917 0.0000000000000000 2.5097416201673033
B 6.7672803084945254 1.4384298342308426 2.5097416201673033
N 6.5798515788018719 2.1379233762419134 3.7646124302509545
B 5.9915667709963270 3.4592326881023454 3.7646124302509545
N 5.5971560643442597 4.0665719166292149 2.5097416201673028
B 4.6293569322526116 5.1414217445710300 2.5097416201673028
N 4.0665719166292149 5.5971560643442597 3.7646124302509545
B 2.8139933823536509 6.3203326182894051 3.7646124302509545
N 2.1379233762419139 6.5798515788018719 2.5097416201673024
B 0.7231765539451459 6.8805652989828641 2.5097416201673024
N 0.0000000000000004 6.9184653762046917 3.7646124302509536
B -1.4384298342308399 6.7672803084945254 3.7646124302509536
N -2.1379233762419121 6.5798515788018745 2.5097416201673024
B -3.4592326881023441 5.9915667709963261 2.5097416201673024
N -4.0665719166292140 5.5971560643442597 3.7646124302509527
B -5.1414217445710291 4.6293569322526125 3.7646124302509527
N -5.5971560643442588 4.0665719166292158 2.5097416201673015
B -6.3203326182894033 2.8139933823536509 2.5097416201673015
N -6.5798515788018728 2.1379233762419143 3.7646124302509536
B -6.8805652989828641 0.7231765539451462 3.7646124302509536
N -6.9184653762046917 0.0000000000000008 2.5097416201672997
B -6.7672803084945254 -1.4384298342308410 2.5097416201672997
N -6.5798515788018745 -2.1379233762419130 3.7646124302509518
B -5.9915667709963296 -3.4592326881023419 3.7646124302509518
N -5.5971560643442615 -4.0665719166292149 2.5097416201673015
B -4.6293569322526134 -5.1414217445710291 2.5097416201673015
N -4.0665719166292158 -5.5971560643442588 3.7646124302509536
B -2.8139933823536492 -6.3203326182894051 3.7646124302509536
N -2.1379233762419148 -6.5798515788018728 2.5097416201672997
B -0.7231765539451438 -6.8805652989828658 2.5097416201672997
N -0.0000000000000013 -6.9184653762046917 3.7646124302509518
B 1.4384298342308433 -6.7672803084945237 3.7646124302509518
N 2.1379233762419125 -6.5798515788018737 2.5097416201672997
B 3.4592326881023467 -5.9915667709963261 2.5097416201672997
N 4.0665719166292131 -5.5971560643442606 3.7646124302509518
B 5.1414217445710300 -4.6293569322526107 3.7646124302509518
N 5.5971560643442597 -4.0665719166292167 2.5097416201672997
B 6.3203326182894051 -2.8139933823536496 2.5097416201672997
N 6.5798515788018728 -2.1379233762419152 3.7646124302509483
B 6.8805652989828632 -0.7231765539451440 3.7646124302509483
N 6.9184653762046917 0.0000000000000000 5.0194832403346066
B 6.7672803084945254 1.4384298342308426 5.0194832403346066
N 6.5798515788018719 2.1379233762419134 6.2743540504182578
B 5.9915667709963270 3.4592326881023454 6.2743540504182578
N 5.5971560643442597 4.0665719166292149 5.0194832403346066
B 4.6293569322526116 5.1414217445710300 5.0194832403346066
N 4.0665719166292149 5.5971560643442597 6.2743540504182578
B 2.8139933823536509 6.3203326182894051 6.2743540504182578
N 2.1379233762419139 6.5798515788018719 5.0194832403346057
B 0.7231765539451459 6.8805652989828641 5.0194832403346057
N 0.0000000000000004 6.9184653762046917 6.2743540504182569
B -1.4384298342308399 6.7672803084945254 6.2743540504182569
N -2.1379233762419121 6.5798515788018745 5.0194832403346057
B -3.4592326881023441 5.9915667709963261 5.0194832403346057
N -4.0665719166292140 5.5971560643442597 6.2743540504182560
B -5.1414217445710291 4.6293569322526125 6.2743540504182560
N -5.5971560643442588 4.0665719166292158 5.0194832403346048
B -6.3203326182894033 2.8139933823536509 5.0194832403346048
N -6.5798515788018728 2.1379233762419143 6.2743540504182569
B -6.8805652989828641 0.7231765539451462 6.2743540504182569
N -6.9184653762046917 0.0000000000000008 5.0194832403346030
B -6.7672803084945254 -1.4384298342308410 5.0194832403346030
N -6.5798515788018745 -2.1379233762419130 6.2743540504182551
B -5.9915667709963296 -3.4592326881023419 6.2743540504182551
N -5.5971560643442615 -4.0665719166292149 5.0194832403346048
B -4.6293569322526134 -5.1414217445710291 5.0194832403346048
N -4.0665719166292158 -5.5971560643442588 6.2743540504182569
B -2.8139933823536492 -6.3203326182894051 6.2743540504182569
N -2.1379233762419148 -6.5798515788018728 5.0194832403346030
B -0.7231765539451438 -6.8805652989828658 5.0194832403346030
N -0.0000000000000013 -6.9184653762046917 6.2743540504182551
B 1.4384298342308433 -6.7672803084945237 6.2743540504182551
N 2.1379233762419125 -6.5798515788018737 5.0194832403346030
B 3.4592326881023467 -5.9915667709963261 5.0194832403346030
N 4.0665719166292131 -5.5971560643442606 6.2743540504182551
B 5.1414217445710300 -4.6293569322526107 6.2743540504182551
N 5.5971560643442597 -4.0665719166292167 5.0194832403346030
B 6.3203326182894051 -2.8139933823536496 5.0194832403346030
N 6.5798515788018728 -2.1379233762419152 6.2743540504182516
B 6.8805652989828632 -0.7231765539451440 6.2743540504182516
N 6.9184653762046917 0.0000000000000000 7.5292248605019099
B 6.7672803084945254 1.4384298342308426 7.5292248605019099
N 6.5798515788018719 2.1379233762419134 8.7840956705855611
B 5.9915667709963270 3.4592326881023454 8.7840956705855611
N 5.5971560643442597 4.0665719166292149 7.5292248605019090
B 4.6293569322526116 5.1414217445710300 7.5292248605019090
N 4.0665719166292149 5.5971560643442597 8.7840956705855611
B 2.8139933823536509 6.3203326182894051 8.7840956705855611
N 2.1379233762419139 6.5798515788018719 7.5292248605019090
B 0.7231765539451459 6.8805652989828641 7.5292248605019090
N 0.0000000000000004 6.9184653762046917 8.7840956705855611
B -1.4384298342308399 6.7672803084945254 8.7840956705855611
N -2.1379233762419121 6.5798515788018745 7.5292248605019090
B -3.4592326881023441 5.9915667709963261 7.5292248605019090
N -4.0665719166292140 5.5971560643442597 8.7840956705855593
B -5.1414217445710291 4.6293569322526125 8.7840956705855593
N -5.5971560643442588 4.0665719166292158 7.5292248605019081
B -6.3203326182894033 2.8139933823536509 7.5292248605019081
N -6.5798515788018728 2.1379233762419143 8.7840956705855611
B -6.8805652989828641 0.7231765539451462 8.7840956705855611
N -6.9184653762046917 0.0000000000000008 7.5292248605019063
B -6.7672803084945254 -1.4384298342308410 7.5292248605019063
N -6.5798515788018745 -2.1379233762419130 8.7840956705855575
B -5.9915667709963296 -3.4592326881023419 8.7840956705855575
N -5.5971560643442615 -4.0665719166292149 7.5292248605019081
B -4.6293569322526134 -5.1414217445710291 7.5292248605019081
N -4.0665719166292158 -5.5971560643442588 8.7840956705855611
B -2.8139933823536492 -6.3203326182894051 8.7840956705855611
N -2.1379233762419148 -6.5798515788018728 7.5292248605019063
B -0.7231765539451438 -6.8805652989828658 7.5292248605019063
N -0.0000000000000013 -6.9184653762046917 8.7840956705855575
B 1.4384298342308433 -6.7672803084945237 8.7840956705855575
N 2.1379233762419125 -6.5798515788018737 7.5292248605019063
B 3.4592326881023467 -5.9915667709963261 7.5292248605019063
N 4.0665719166292131 -5.5971560643442606 8.7840956705855575
B 5.1414217445710300 -4.6293569322526107 8.7840956705855575
N 5.5971560643442597 -4.0665719166292167 7.5292248605019063
B 6.3203326182894051 -2.8139933823536496 7.5292248605019063
N 6.5798515788018728 -2.1379233762419152 8.7840956705855540
B 6.8805652989828632 -0.7231765539451440 8.7840956705855540
N 6.9184653762046917 0.0000000000000000 10.0389664806692132
B 6.7672803084945254 1.4384298342308426 10.0389664806692132
N 6.5798515788018719 2.1379233762419134 -1.2548708100836519
B 5.9915667709963270 3.4592326881023454 -1.2548708100836519
N 5.5971560643442597 4.0665719166292149 10.0389664806692132
B 4.6293569322526116 5.1414217445710300 10.0389664806692132
N 4.0665719166292149 5.5971560643442597 -1.2548708100836521
B 2.8139933823536509 6.3203326182894051 -1.2548708100836521
N 2.1379233762419139 6.5798515788018719 10.0389664806692132
B 0.7231765539451459 6.8805652989828641 10.0389664806692132
N 0.0000000000000004 6.9184653762046917 -1.2548708100836530
B -1.4384298342308399 6.7672803084945254 -1.2548708100836530
N -2.1379233762419121 6.5798515788018745 10.0389664806692132
B -3.4592326881023441 5.9915667709963261 10.0389664806692132
N -4.0665719166292140 5.5971560643442597 -1.2548708100836539
B -5.1414217445710291 4.6293569322526125 -1.2548708100836539
N -5.5971560643442588 4.0665719166292158 10.0389664806692114
B -6.3203326182894033 2.8139933823536509 10.0389664806692114
N -6.5798515788018728 2.1379233762419143 -1.2548708100836530
B -6.8805652989828641 0.7231765539451462 -1.2548708100836530
N -6.9184653762046917 0.0000000000000008 10.0389664806692096
B -6.7672803084945254 -1.4384298342308410 10.0389664806692096
N -6.5798515788018745 -2.1379233762419130 -1.2548708100836548
B -5.9915667709963296 -3.4592326881023419 -1.2548708100836548
N -5.5971560643442615 -4.0665719166292149 10.0389664806692114
B -4.6293569322526134 -5.1414217445710291 10.0389664806692114
N -4.0665719166292158 -5.5971560643442588 -1.2548708100836530
B -2.8139933823536492 -6.3203326182894051 -1.2548708100836530
N -2.1379233762419148 -6.5798515788018728 10.0389664806692096
B -0.7231765539451438 -6.8805652989828658 10.0389664806692096
N -0.0000000000000013 -6.9184653762046917 -1.2548708100836548
B 1.4384298342308433 -6.7672803084945237 -1.2548708100836548
N 2.1379233762419125 -6.5798515788018737 10.0389664806692096
B 3.4592326881023467 -5.9915667709963261 10.0389664806692096
N 4.0665719166292131 -5.5971560643442606 -1.2548708100836548
B 5.1414217445710300 -4.6293569322526107 -1.2548708100836548
N 5.5971560643442597 -4.0665719166292167 10.0389664806692096
B 6.3203326182894051 -2.8139933823536496 10.0389664806692096
N 6.5798515788018728 -2.1379233762419152 -1.2548708100836583
B 6.8805652989828632 -0.7231765539451440 -1.2548708100836583
